# MODFLOW2005 Basic Package
#
free CONTHEADOUT
OPEN/CLOSE ref/umd_ibound.ref        1  (FREE)          -1     IBOUND Layer   1
OPEN/CLOSE ref/umd_ibound.ref        1  (FREE)          -1     IBOUND Layer   2
OPEN/CLOSE ref/umd_ibound.ref        1  (FREE)          -1     IBOUND Layer   3
9.9900e+02
OPEN/CLOSE ref/umd_ihead_navd.ref  1.0 (FREE)          -1     SHEAD  Layer   1
OPEN/CLOSE ref/umd_ihead_navd.ref  1.0 (FREE)          -1     SHEAD  Layer   2
OPEN/CLOSE ref/umd_ihead_navd.ref  1.0 (FREE)          -1     SHEAD  Layer   3
