#listing output file
LIST         51 Results/UMD_f.lst

#model input files
BAS6          1 UMD.bas
DIS          10 UMD.dis
UPW          11 UMD.lpf
OC           12 UMD_f.oc
NWT          21 UMD.nwt
GFB          31 UMD.gfb
ETS          32 UMD.ets
GHB          33 UMD_Obs.ghb
DRN          34 UMD_Obs.drn
WEL          35 UMD.wel
SWR          40 UMD.swr
SWI2         41 UMD.swi

#--HYDMOD input and output
HYD          42 UMD.hyd
DATA(BINARY) 43 Results/UMD.hydmod.bin REPLACE


#binary output files
#MODFLOW
DATA(BINARY) 201  Results/UMD.hds REPLACE
DATA(BINARY) 205  Results/UMD.CBC.bin REPLACE
#SWI
DATA(BINARY) 211  Results/UMD.zta REPLACE
#SWR
DATA(BINARY) 101  Results/UMD.fls REPLACE
DATA(BINARY) 102  Results/UMD.stg REPLACE
DATA(BINARY) 103  Results/UMD.qaq REPLACE
DATA(BINARY) 104  Results/UMD.pqm REPLACE
DATA(BINARY) 107  Results/UMB.SWR.OBS.bin REPLACE

#ascii output
#SWR
#DATA        105  Results/UMD.str.csv REPLACE
#DATA        106  Results/UMD.converge REPLACE

#SWR data files
DATA       1040 SWRREF/SWR_Dataset11.ref
DATA       1041 SWRREF/SWR_Dataset13.ref
DATA       1042 SWRREF/SWR_DCIA_Dataset.ref
#--observed stage data for boundaries
#--observed flows for inflows and outflows to pools
DATA        501 bndref/flow/S151_C_SWR1.ref
DATA        502 bndref/flow/S25B_P_SWR1.ref
DATA        503 bndref/flow/S26_P_SWR1.ref
DATA        504 bndref/flow/S331_P_SWR1.ref
DATA        505 bndref/flow/S331_SIPH_SWR1.ref
DATA        506 bndref/flow/S332B1_P_SWR1.ref
DATA        507 bndref/flow/S332B2_P_SWR1.ref
DATA        508 bndref/flow/S332C_P_SWR1.ref
DATA        509 bndref/flow/S332DX1_C_SWR1.ref
DATA        510 bndref/flow/S332D_P_SWR1.ref
DATA        511 bndref/flow/S332_P_SWR1.ref
DATA        512 bndref/gate/ClosedGate_SWR1.ref
DATA        513 bndref/gate/DBL2_EFF_GO_SWR1.ref
DATA        514 bndref/gate/G119_EFF_GO_SWR1.ref
DATA        515 bndref/gate/G211_EFF_GO_SWR1.ref
DATA        516 bndref/gate/G72_EFF_GO_SWR1.ref
DATA        517 bndref/gate/G93_EFF_GO_SWR1.ref
DATA        518 bndref/gate/NW25_EST_SWR1.ref
DATA        519 bndref/gate/NW58_OPEN_SWR1.ref
DATA        520 bndref/gate/S118_EFF_GO_SWR1.ref
DATA        521 bndref/gate/S119_EFF_GO_SWR1.ref
DATA        522 bndref/gate/S120_EFF_GO_SWR1.ref
DATA        523 bndref/gate/S121_EFF_GO_SWR1.ref
DATA        524 bndref/gate/S122_EFF_GO_SWR1.ref
DATA        525 bndref/gate/S123_EFF_GO_SWR1.ref
DATA        526 bndref/gate/S148_EFF_GO_SWR1.ref
DATA        527 bndref/gate/S149_EFF_GO_SWR1.ref
DATA        528 bndref/gate/S165_EFF_GO_SWR1.ref
DATA        529 bndref/gate/S166_EFF_GO_SWR1.ref
DATA        530 bndref/gate/S167_EFF_GO_SWR1.ref
DATA        531 bndref/gate/S173_EFF_GO_SWR1.ref
DATA        532 bndref/gate/S174_EFF_GO_SWR1.ref
DATA        533 bndref/gate/S175_EFF_GO_SWR1.ref
DATA        534 bndref/gate/S176_EFF_GO_SWR1.ref
DATA        535 bndref/gate/S177_EFF_GO_SWR1.ref
DATA        536 bndref/gate/S178_EFF_GO_SWR1.ref
DATA        537 bndref/gate/S179_EFF_GO_SWR1.ref
DATA        538 bndref/gate/S18C_EFF_GO_SWR1.ref
DATA        539 bndref/gate/S194_EFF_GO_SWR1.ref
DATA        540 bndref/gate/S195_EFF_GO_SWR1.ref
DATA        541 bndref/gate/S196_EFF_GO_SWR1.ref
DATA        542 bndref/gate/S197_EFF_GO_SWR1.ref
DATA        543 bndref/gate/S20F_EFF_GO_SWR1.ref
DATA        544 bndref/gate/S20G_EFF_GO_SWR1.ref
DATA        545 bndref/gate/S20_EFF_GO_SWR1.ref
DATA        546 bndref/gate/S21A_EFF_GO_SWR1.ref
DATA        547 bndref/gate/S21_EFF_GO_SWR1.ref
DATA        548 bndref/gate/S22_EFF_GO_SWR1.ref
DATA        549 bndref/gate/S25A_GO_SWR1.ref
DATA        550 bndref/gate/S25B_EFF_GO_SWR1.ref
DATA        551 bndref/gate/S25_EFF_GO_SWR1.ref
DATA        552 bndref/gate/S26_EFF_GO_SWR1.ref
DATA        553 bndref/gate/S27_EFF_GO_SWR1.ref
DATA        554 bndref/gate/S28_EFF_GO_SWR1.ref
DATA        555 bndref/gate/S29_EFF_GO_SWR1.ref
DATA        556 bndref/gate/S30_EFF_GO_SWR1.ref
DATA        557 bndref/gate/S31_EFF_GO_SWR1.ref
DATA        558 bndref/gate/S334_EFF_GO_SWR1.ref
DATA        559 bndref/gate/S335_EFF_GO_SWR1.ref
DATA        560 bndref/gate/S336_EFF_GO_SWR1.ref
DATA        561 bndref/gate/S337_EFF_GO_SWR1.ref
DATA        562 bndref/gate/S338_EFF_GO_SWR1.ref
DATA        563 bndref/gate/S380_EFF_GO_SWR1.ref
DATA        564 bndref/stage/VAKey_SWR1.ref
